# generated using pymatgen
data_Li6PS5Cl
_symmetry_space_group_name_H-M   'P 1'
_cell_length_a   14.16860000
_cell_length_b   7.17340000
_cell_length_c   9.85700000
_cell_angle_alpha   90.00000000
_cell_angle_beta   90.00000000
_cell_angle_gamma   90.00000000
_symmetry_Int_Tables_number   1
_chemical_formula_structural   Li6PS5Cl
_chemical_formula_sum   'Li24 P4 S20 Cl4'
_cell_volume   1001.83625636
_cell_formula_units_Z   4
loop_
 _symmetry_equiv_pos_site_id
 _symmetry_equiv_pos_as_xyz
  1  'x, y, z'
loop_
 _atom_site_type_symbol
 _atom_site_label
 _atom_site_symmetry_multiplicity
 _atom_site_fract_x
 _atom_site_fract_y
 _atom_site_fract_z
 _atom_site_occupancy
  Cl  Cl0  1  0.144360  0.304300  0.168300  1
  Cl  Cl1  1  0.855640  0.695700  0.668300  1
  Cl  Cl2  1  0.644360  0.195700  0.168300  1
  Cl  Cl3  1  0.355640  0.804300  0.668300  1
  Li  Li4  1  0.320730  0.243180  0.192130  1
  Li  Li5  1  0.679270  0.756820  0.692130  1
  Li  Li6  1  0.820730  0.256820  0.192130  1
  Li  Li7  1  0.179270  0.743180  0.692130  1
  Li  Li8  1  0.026450  0.171680  0.331390  1
  Li  Li9  1  0.973550  0.828320  0.831390  1
  Li  Li10  1  0.526450  0.328320  0.331390  1
  Li  Li11  1  0.473550  0.671680  0.831390  1
  Li  Li12  1  0.109110  0.049260  0.020140  1
  Li  Li13  1  0.890890  0.950740  0.520140  1
  Li  Li14  1  0.609110  0.450740  0.020140  1
  Li  Li15  1  0.390890  0.549260  0.520140  1
  Li  Li16  1  0.042700  0.445400  0.983640  1
  Li  Li17  1  0.957300  0.554600  0.483640  1
  Li  Li18  1  0.542700  0.054600  0.983640  1
  Li  Li19  1  0.457300  0.945400  0.483640  1
  Li  Li20  1  0.217310  0.394120  0.382650  1
  Li  Li21  1  0.782690  0.605880  0.882650  1
  Li  Li22  1  0.717310  0.105880  0.382650  1
  Li  Li23  1  0.282690  0.894120  0.882650  1
  Li  Li24  1  0.127750  0.646470  0.171040  1
  Li  Li25  1  0.872250  0.353530  0.671040  1
  Li  Li26  1  0.627750  0.853530  0.171040  1
  Li  Li27  1  0.372250  0.146470  0.671040  1
  P  P28  1  0.114700  0.231870  0.684840  1
  P  P29  1  0.885300  0.768130  0.184840  1
  P  P30  1  0.614700  0.268130  0.684840  1
  P  P31  1  0.385300  0.731870  0.184840  1
  S  S32  1  0.267670  0.720420  0.304860  1
  S  S33  1  0.732330  0.279580  0.804860  1
  S  S34  1  0.767670  0.779580  0.304860  1
  S  S35  1  0.232330  0.220420  0.804860  1
  S  S36  1  0.395230  0.510970  0.051970  1
  S  S37  1  0.604770  0.489030  0.551970  1
  S  S38  1  0.895230  0.989030  0.051970  1
  S  S39  1  0.104770  0.010970  0.551970  1
  S  S40  1  0.385960  0.974100  0.071650  1
  S  S41  1  0.614040  0.025900  0.571650  1
  S  S42  1  0.885960  0.525900  0.071650  1
  S  S43  1  0.114040  0.474100  0.571650  1
  S  S44  1  0.999210  0.212260  0.810950  1
  S  S45  1  0.000790  0.787740  0.310950  1
  S  S46  1  0.499210  0.287740  0.810950  1
  S  S47  1  0.500790  0.712260  0.310950  1
  S  S48  1  0.369180  0.236970  0.430190  1
  S  S49  1  0.630820  0.763030  0.930190  1
  S  S50  1  0.869180  0.263030  0.430190  1
  S  S51  1  0.130820  0.736970  0.930190  1
